network/glm/Elermorevale/subs/HP00061210GTX00000001.glm



object transformer {
      name HP00061210GTX00000001_TX;
      phases ABC;
      from HP00061210GTX00000001;
      to HP00061210GTX00000001_LV;
      configuration HP00061210GTX00000001_config;
      };



object meter {
      name HP00061210GTX00000001_LV;
      phases ABCN;
      nominal_voltage  240;
      };


object switch {
      name HP00061210GTX00000001_LV-HP00061210_LV_BB_022;
      phases ABCN;
      from HP00061210GTX00000001_LV;
      to HP00061210_LV_BB_022;
      status CLOSED;
      };



object meter {
      name HP00061210_LV_BB_022;
      phases ABCN;
      nominal_voltage  240;
      };


object switch {
      name HP00061210_LV_BB_022-HP00061210LDI0061210R_T1;
      phases ABCN;
      from HP00061210_LV_BB_022;
      to HP00061210LDI0061210R_T1;
      status CLOSED;
      };



object meter {
      name HP00061210LDI0061210R_T1;
      phases ABCN;
      nominal_voltage  240;
      };


object fuse {
      name HP00061210LDI0061210R;
      phases ABCN;
      from HP00061210LDI0061210R_T1;
      to HP00061210LDI0061210R_T2;
      phase_A_status GOOD;
      phase_B_status GOOD;
      phase_C_status GOOD;
      current_limit  10000 A;
      mean_replacement_time 3600;
      };



object meter {
      name HP00061210LDI0061210R_T2;
      phases ABCN;
      nominal_voltage  240;
      };


object switch {
      name HP00061210LDI0061210R_T2-HP00061210_LV_BB_024_1;
      phases ABCN;
      from HP00061210LDI0061210R_T2;
      to HP00061210_LV_BB_024_1;
      status CLOSED;
      };



object meter {
      name HP00061210_LV_BB_024_1;
      phases ABCN;
      nominal_voltage  240;
      };


object overhead_line {
      name HP00061210_LV_BB_024_1-FDR_61210R_LV_NODE_025;
      phases ABCN;
      from HP00061210_LV_BB_024_1;
      to FDR_61210R_LV_NODE_025;
      length 38.6 m;
      configuration conf_OHLine_57003;
      };



object meter {
      name FDR_61210R_LV_NODE_025;
      phases ABCN;
      nominal_voltage  240;
      };


object overhead_line {
      name FDR_61210R_LV_NODE_025-FDR_61210R_LV_SP_5305271;
      phases BN;
      from FDR_61210R_LV_NODE_025;
      to FDR_61210R_LV_SP_5305271;
      length 29.5 m;
      configuration conf_OHLine_600;
      };



object meter {
      name FDR_61210R_LV_SP_5305271;
      phases BN;
      nominal_voltage  240;
      };


object load {
      name LOAD_8601754;
      parent FDR_61210R_LV_SP_5305271;
      phases BN;
      nominal_voltage  240;
      base_power_B Load_61210.result;
      power_fraction_B 1;
      current_fraction_B 0;
      impedance_fraction_B 0;
      power_pf_B L_pf_Head80784.output;
      current_pf_B 1;
      impedance_pf_B 1;
      
      // Customer Trial Appended Data //
      ausgrid_sa1 11103123343;
      ausgrid_annual_consumption 2382.7272727;
      ausgrid_annual_consumption_with_control_load 2382.7272727;
      ausgrid_simple_cell 25;
      ausgrid_elec_band_residential 1;
      ausgrid_elec_band_business 0;
      ausgrid_unit 0;
      ausgrid_income_band 1;
      ausgrid_gas_band 1;
      ausgrid_climate_zone 5;
      ausgrid_controlled_load 0;
      ausgrid_generation 0;
      };


object overhead_line {
      name FDR_61210R_LV_NODE_025-FDR_61210R_LV_NODE_026_1;
      phases ABCN;
      from FDR_61210R_LV_NODE_025;
      to FDR_61210R_LV_NODE_026_1;
      length 45.7 m;
      configuration conf_OHLine_600;
      };



object meter {
      name FDR_61210R_LV_NODE_026_1;
      phases ABCN;
      nominal_voltage  240;
      };


object overhead_line {
      name FDR_61210R_LV_NODE_026_1-FDR_61210R_LV_NODE_027_3;
      phases ABCN;
      from FDR_61210R_LV_NODE_026_1;
      to FDR_61210R_LV_NODE_027_3;
      length 37.8 m;
      configuration conf_OHLine_600;
      };



object meter {
      name FDR_61210R_LV_NODE_027_3;
      phases ABCN;
      nominal_voltage  240;
      };


object overhead_line {
      name FDR_61210R_LV_NODE_027_3-FDR_61210R_LV_SP_5305216;
      phases AN;
      from FDR_61210R_LV_NODE_027_3;
      to FDR_61210R_LV_SP_5305216;
      length 45.4 m;
      configuration conf_OHLine_600;
      };



object meter {
      name FDR_61210R_LV_SP_5305216;
      phases AN;
      nominal_voltage  240;
      };


object load {
      name LOAD_8601742;
      parent FDR_61210R_LV_SP_5305216;
      phases AN;
      nominal_voltage  240;
      base_power_A Load_61210.result;
      power_fraction_A 1;
      current_fraction_A 0;
      impedance_fraction_A 0;
      power_pf_A L_pf_Head80784.output;
      current_pf_A 1;
      impedance_pf_A 1;
      
      // Customer Trial Appended Data //
      ausgrid_sa1 11103123334;
      ausgrid_annual_consumption 1355.0909091;
      ausgrid_annual_consumption_with_control_load 3278.7272727;
      ausgrid_simple_cell 25;
      ausgrid_elec_band_residential 1;
      ausgrid_elec_band_business 0;
      ausgrid_unit 0;
      ausgrid_income_band 1;
      ausgrid_gas_band 1;
      ausgrid_climate_zone 5;
      ausgrid_controlled_load 1;
      ausgrid_generation 0;
      };


object load {
      name LOAD_8601740;
      parent FDR_61210R_LV_SP_5305216;
      phases AN;
      nominal_voltage  240;
      base_power_A Load_61210.result;
      power_fraction_A 1;
      current_fraction_A 0;
      impedance_fraction_A 0;
      power_pf_A L_pf_Head80784.output;
      current_pf_A 1;
      impedance_pf_A 1;
      
      // Customer Trial Appended Data //
      ausgrid_sa1 11103123334;
      ausgrid_annual_consumption 1593.6860465;
      ausgrid_annual_consumption_with_control_load 1593.6860465;
      ausgrid_simple_cell 25;
      ausgrid_elec_band_residential 1;
      ausgrid_elec_band_business 0;
      ausgrid_unit 0;
      ausgrid_income_band 1;
      ausgrid_gas_band 1;
      ausgrid_climate_zone 5;
      ausgrid_controlled_load 1;
      ausgrid_generation 0;
      };


object overhead_line {
      name FDR_61210R_LV_NODE_027_3-FDR_61210R_LV_NODE_028_1;
      phases ABCN;
      from FDR_61210R_LV_NODE_027_3;
      to FDR_61210R_LV_NODE_028_1;
      length 14.0 m;
      configuration conf_OHLine_600;
      };



object meter {
      name FDR_61210R_LV_NODE_028_1;
      phases ABCN;
      nominal_voltage  240;
      };


object overhead_line {
      name FDR_61210R_LV_NODE_028_1-FDR_61210R_LV_SP_5305215;
      phases BN;
      from FDR_61210R_LV_NODE_028_1;
      to FDR_61210R_LV_SP_5305215;
      length 15.7 m;
      configuration conf_OHLine_600;
      };



object meter {
      name FDR_61210R_LV_SP_5305215;
      phases BN;
      nominal_voltage  240;
      };


object load {
      name LOAD_8601738;
      parent FDR_61210R_LV_SP_5305215;
      phases BN;
      nominal_voltage  240;
      base_power_B Load_61210.result;
      power_fraction_B 1;
      current_fraction_B 0;
      impedance_fraction_B 0;
      power_pf_B L_pf_Head80784.output;
      current_pf_B 1;
      impedance_pf_B 1;
      
      // Customer Trial Appended Data //
      ausgrid_sa1 11103123334;
      ausgrid_annual_consumption 2546.4848485;
      ausgrid_annual_consumption_with_control_load 2546.4848485;
      ausgrid_simple_cell 25;
      ausgrid_elec_band_residential 1;
      ausgrid_elec_band_business 0;
      ausgrid_unit 0;
      ausgrid_income_band 1;
      ausgrid_gas_band 1;
      ausgrid_climate_zone 5;
      ausgrid_controlled_load 0;
      ausgrid_generation 0;
      };


object overhead_line {
      name FDR_61210R_LV_NODE_028_1-FDR_61210R_LV_SP_5305214;
      phases AN;
      from FDR_61210R_LV_NODE_028_1;
      to FDR_61210R_LV_SP_5305214;
      length 15.1 m;
      configuration conf_OHLine_600;
      };



object meter {
      name FDR_61210R_LV_SP_5305214;
      phases AN;
      nominal_voltage  240;
      };


object load {
      name LOAD_8601736;
      parent FDR_61210R_LV_SP_5305214;
      phases AN;
      nominal_voltage  240;
      base_power_A Load_61210.result;
      power_fraction_A 1;
      current_fraction_A 0;
      impedance_fraction_A 0;
      power_pf_A L_pf_Head80784.output;
      current_pf_A 1;
      impedance_pf_A 1;
      
      // Customer Trial Appended Data //
      ausgrid_sa1 11103123334;
      ausgrid_annual_consumption 657.33333333;
      ausgrid_annual_consumption_with_control_load 657.33333333;
      ausgrid_simple_cell 25;
      ausgrid_elec_band_residential 1;
      ausgrid_elec_band_business 0;
      ausgrid_unit 0;
      ausgrid_income_band 1;
      ausgrid_gas_band 1;
      ausgrid_climate_zone 5;
      ausgrid_controlled_load 0;
      ausgrid_generation 0;
      };


object overhead_line {
      name FDR_61210R_LV_NODE_027_3-FDR_61210R_LV_NODE_028_2;
      phases ABCN;
      from FDR_61210R_LV_NODE_027_3;
      to FDR_61210R_LV_NODE_028_2;
      length 38.3 m;
      configuration conf_OHLine_600;
      };



object meter {
      name FDR_61210R_LV_NODE_028_2;
      phases ABCN;
      nominal_voltage  240;
      };


object overhead_line {
      name FDR_61210R_LV_NODE_028_2-FDR_61210R_LV_SP_5305266;
      phases CN;
      from FDR_61210R_LV_NODE_028_2;
      to FDR_61210R_LV_SP_5305266;
      length 16.3 m;
      configuration conf_OHLine_600;
      };



object meter {
      name FDR_61210R_LV_SP_5305266;
      phases CN;
      nominal_voltage  240;
      };


object load {
      name LOAD_8601766;
      parent FDR_61210R_LV_SP_5305266;
      phases CN;
      nominal_voltage  240;
      base_power_C Load_61210.result;
      power_fraction_C 1;
      current_fraction_C 0;
      impedance_fraction_C 0;
      power_pf_C L_pf_Head80784.output;
      current_pf_C 1;
      impedance_pf_C 1;
      
      // Customer Trial Appended Data //
      ausgrid_sa1 11103123343;
      ausgrid_annual_consumption 9357.3960606;
      ausgrid_annual_consumption_with_control_load 9357.3960606;
      ausgrid_simple_cell 27;
      ausgrid_elec_band_residential 3;
      ausgrid_elec_band_business 0;
      ausgrid_unit 0;
      ausgrid_income_band 1;
      ausgrid_gas_band 1;
      ausgrid_climate_zone 5;
      ausgrid_controlled_load 0;
      ausgrid_generation 1;
      };


object inverter {
      name DG_8601766;
      parent FDR_61210R_LV_SP_5305266;
      phases CN;
      generator_mode CONSTANT_PF;
      generator_status ONLINE;
      inverter_type PWM;
      power_factor 0.9;
      rated_power 10000;
      inverter_efficiency 0.95;
      };


object solar {
      name SOLAR_8601766;
      parent DG_8601766;
      phases CN;
      generator_status ONLINE;
      weather ElermoreClimate;
      panel_type SINGLE_CRYSTAL_SILICON;
      generator_mode CONSTANT_PF;
      area 23.424 m^2;
      tilt_angle 17;
      efficiency 0.14;
      orientation_azimuth 40;
      orientation  FIXED_AXIS;
      SOLAR_TILT_MODEL  SOLPOS;
      SOLAR_POWER_MODEL  DEFAULT;
      };


object overhead_line {
      name FDR_61210R_LV_NODE_028_2-FDR_61210R_LV_SP_5305264;
      phases BN;
      from FDR_61210R_LV_NODE_028_2;
      to FDR_61210R_LV_SP_5305264;
      length 31.2 m;
      configuration conf_OHLine_600;
      };



object meter {
      name FDR_61210R_LV_SP_5305264;
      phases BN;
      nominal_voltage  240;
      };


object load {
      name LOAD_8601770;
      parent FDR_61210R_LV_SP_5305264;
      phases BN;
      nominal_voltage  240;
      base_power_B Load_61210.result;
      power_fraction_B 1;
      current_fraction_B 0;
      impedance_fraction_B 0;
      power_pf_B L_pf_Head80784.output;
      current_pf_B 1;
      impedance_pf_B 1;
      
      // Customer Trial Appended Data //
      ausgrid_sa1 11103123343;
      ausgrid_annual_consumption 5263.4242424;
      ausgrid_annual_consumption_with_control_load 5263.4242424;
      ausgrid_simple_cell 25;
      ausgrid_elec_band_residential 1;
      ausgrid_elec_band_business 0;
      ausgrid_unit 0;
      ausgrid_income_band 1;
      ausgrid_gas_band 1;
      ausgrid_climate_zone 5;
      ausgrid_controlled_load 0;
      ausgrid_generation 0;
      };


object overhead_line {
      name FDR_61210R_LV_NODE_028_2-FDR_61210R_LV_NODE_029;
      phases ABCN;
      from FDR_61210R_LV_NODE_028_2;
      to FDR_61210R_LV_NODE_029;
      length 45.0 m;
      configuration conf_OHLine_51027;
      };



object meter {
      name FDR_61210R_LV_NODE_029;
      phases ABCN;
      nominal_voltage  240;
      };


object overhead_line {
      name FDR_61210R_LV_NODE_029-FDR_61210R_LV_NODE_030;
      phases ABCN;
      from FDR_61210R_LV_NODE_029;
      to FDR_61210R_LV_NODE_030;
      length 18.7 m;
      configuration conf_OHLine_600;
      };



object meter {
      name FDR_61210R_LV_NODE_030;
      phases ABCN;
      nominal_voltage  240;
      };


object overhead_line {
      name FDR_61210R_LV_NODE_030-FDR_61210R_LV_SP_5305218;
      phases AN;
      from FDR_61210R_LV_NODE_030;
      to FDR_61210R_LV_SP_5305218;
      length 14.5 m;
      configuration conf_OHLine_600;
      };



object meter {
      name FDR_61210R_LV_SP_5305218;
      phases AN;
      nominal_voltage  240;
      };


object load {
      name LOAD_8601746;
      parent FDR_61210R_LV_SP_5305218;
      phases AN;
      nominal_voltage  240;
      base_power_A Load_61210.result;
      power_fraction_A 1;
      current_fraction_A 0;
      impedance_fraction_A 0;
      power_pf_A L_pf_Head80784.output;
      current_pf_A 1;
      impedance_pf_A 1;
      
      // Customer Trial Appended Data //
      ausgrid_sa1 11103123334;
      ausgrid_annual_consumption 3244.3333333;
      ausgrid_annual_consumption_with_control_load 5263.5454545;
      ausgrid_simple_cell 25;
      ausgrid_elec_band_residential 1;
      ausgrid_elec_band_business 0;
      ausgrid_unit 0;
      ausgrid_income_band 1;
      ausgrid_gas_band 1;
      ausgrid_climate_zone 5;
      ausgrid_controlled_load 1;
      ausgrid_generation 0;
      };


object overhead_line {
      name FDR_61210R_LV_NODE_030-FDR_61210R_LV_SP_5305217;
      phases BN;
      from FDR_61210R_LV_NODE_030;
      to FDR_61210R_LV_SP_5305217;
      length 14.9 m;
      configuration conf_OHLine_600;
      };



object meter {
      name FDR_61210R_LV_SP_5305217;
      phases BN;
      nominal_voltage  240;
      };


object load {
      name LOAD_8601748;
      parent FDR_61210R_LV_SP_5305217;
      phases BN;
      nominal_voltage  240;
      base_power_B Load_61210.result;
      power_fraction_B 1;
      current_fraction_B 0;
      impedance_fraction_B 0;
      power_pf_B L_pf_Head80784.output;
      current_pf_B 1;
      impedance_pf_B 1;
      
      // Customer Trial Appended Data //
      ausgrid_sa1 11103123334;
      ausgrid_annual_consumption 4711.904;
      ausgrid_annual_consumption_with_control_load 6137.495;
      ausgrid_simple_cell 25;
      ausgrid_elec_band_residential 1;
      ausgrid_elec_band_business 0;
      ausgrid_unit 0;
      ausgrid_income_band 1;
      ausgrid_gas_band 1;
      ausgrid_climate_zone 5;
      ausgrid_controlled_load 1;
      ausgrid_generation 0;
      };


object overhead_line {
      name FDR_61210R_LV_NODE_029-FDR_61210R_LV_SP_5305263;
      phases CN;
      from FDR_61210R_LV_NODE_029;
      to FDR_61210R_LV_SP_5305263;
      length 18.3 m;
      configuration conf_OHLine_600;
      };



object meter {
      name FDR_61210R_LV_SP_5305263;
      phases CN;
      nominal_voltage  240;
      };


object load {
      name LOAD_8601772;
      parent FDR_61210R_LV_SP_5305263;
      phases CN;
      nominal_voltage  240;
      base_power_C Load_61210.result;
      power_fraction_C 1;
      current_fraction_C 0;
      impedance_fraction_C 0;
      power_pf_C L_pf_Head80784.output;
      current_pf_C 1;
      impedance_pf_C 1;
      
      // Customer Trial Appended Data //
      ausgrid_sa1 11103123343;
      ausgrid_annual_consumption 2801.46;
      ausgrid_annual_consumption_with_control_load 5688.9631868;
      ausgrid_simple_cell 25;
      ausgrid_elec_band_residential 1;
      ausgrid_elec_band_business 0;
      ausgrid_unit 0;
      ausgrid_income_band 1;
      ausgrid_gas_band 1;
      ausgrid_climate_zone 5;
      ausgrid_controlled_load 1;
      ausgrid_generation 0;
      };


object overhead_line {
      name FDR_61210R_LV_NODE_029-FDR_61210R_LV_SW_030_1_T1;
      phases ABCN;
      from FDR_61210R_LV_NODE_029;
      to FDR_61210R_LV_SW_030_1_T1;
      length 41.9 m;
      configuration conf_OHLine_51027;
      };



object meter {
      name FDR_61210R_LV_SW_030_1_T1;
      phases ABCN;
      nominal_voltage  240;
      };


object switch {
      name FDR_61210R_LV_SW_030_1;
      phases ABCN;
      from FDR_61210R_LV_SW_030_1_T1;
      to FDR_61210R_LV_SW_030_1_T2;
      status CLOSED;
      };



object meter {
      name FDR_61210R_LV_SW_030_1_T2;
      phases ABCN;
      nominal_voltage  240;
      };


object overhead_line {
      name FDR_61210R_LV_NODE_028_2-FDR_61210R_LV_SP_5305337;
      phases AN;
      from FDR_61210R_LV_NODE_028_2;
      to FDR_61210R_LV_SP_5305337;
      length 42.8 m;
      configuration conf_OHLine_600;
      };



object meter {
      name FDR_61210R_LV_SP_5305337;
      phases AN;
      nominal_voltage  240;
      };


object load {
      name LOAD_8601678;
      parent FDR_61210R_LV_SP_5305337;
      phases AN;
      nominal_voltage  240;
      base_power_A Load_61210.result;
      power_fraction_A 1;
      current_fraction_A 0;
      impedance_fraction_A 0;
      power_pf_A L_pf_Head80784.output;
      current_pf_A 1;
      impedance_pf_A 1;
      
      // Customer Trial Appended Data //
      ausgrid_sa1 11103123334;
      ausgrid_annual_consumption 3480.2185714;
      ausgrid_annual_consumption_with_control_load 3480.2185714;
      ausgrid_simple_cell 25;
      ausgrid_elec_band_residential 1;
      ausgrid_elec_band_business 0;
      ausgrid_unit 0;
      ausgrid_income_band 1;
      ausgrid_gas_band 1;
      ausgrid_climate_zone 5;
      ausgrid_controlled_load 0;
      ausgrid_generation 0;
      };


object overhead_line {
      name FDR_61210R_LV_NODE_028_2-FDR_61210R_LV_SW_029_T1;
      phases ABCN;
      from FDR_61210R_LV_NODE_028_2;
      to FDR_61210R_LV_SW_029_T1;
      length 38.7 m;
      configuration conf_OHLine_51101;
      };



object meter {
      name FDR_61210R_LV_SW_029_T1;
      phases ABCN;
      nominal_voltage  240;
      };


object overhead_line {
      name FDR_61210R_LV_NODE_027_3-FDR_61210R_LV_SP_4935076;
      phases BN;
      from FDR_61210R_LV_NODE_027_3;
      to FDR_61210R_LV_SP_4935076;
      length 31.1 m;
      configuration conf_OHLine_600;
      };



object meter {
      name FDR_61210R_LV_SP_4935076;
      phases BN;
      nominal_voltage  240;
      };


object load {
      name LOAD_8601764;
      parent FDR_61210R_LV_SP_4935076;
      phases BN;
      nominal_voltage  240;
      base_power_B Load_61210.result;
      power_fraction_B 1;
      current_fraction_B 0;
      impedance_fraction_B 0;
      power_pf_B L_pf_Head80784.output;
      current_pf_B 1;
      impedance_pf_B 1;
      
      // Customer Trial Appended Data //
      ausgrid_sa1 11103123343;
      ausgrid_annual_consumption 4840.0109091;
      ausgrid_annual_consumption_with_control_load 8103.2706061;
      ausgrid_simple_cell 25;
      ausgrid_elec_band_residential 1;
      ausgrid_elec_band_business 0;
      ausgrid_unit 0;
      ausgrid_income_band 1;
      ausgrid_gas_band 1;
      ausgrid_climate_zone 5;
      ausgrid_controlled_load 1;
      ausgrid_generation 0;
      };


object load {
      name LOAD_8601762;
      parent FDR_61210R_LV_SP_4935076;
      phases BN;
      nominal_voltage  240;
      base_power_B Load_61210.result;
      power_fraction_B 1;
      current_fraction_B 0;
      impedance_fraction_B 0;
      power_pf_B L_pf_Head80784.output;
      current_pf_B 1;
      impedance_pf_B 1;
      
      // Customer Trial Appended Data //
      ausgrid_sa1 11103123343;
      ausgrid_annual_consumption 2951.0272727;
      ausgrid_annual_consumption_with_control_load 2951.0272727;
      ausgrid_simple_cell 25;
      ausgrid_elec_band_residential 1;
      ausgrid_elec_band_business 0;
      ausgrid_unit 0;
      ausgrid_income_band 1;
      ausgrid_gas_band 1;
      ausgrid_climate_zone 5;
      ausgrid_controlled_load 0;
      ausgrid_generation 0;
      };


object overhead_line {
      name FDR_61210R_LV_NODE_027_3-FDR_61210R_LV_SP_5305267;
      phases CN;
      from FDR_61210R_LV_NODE_027_3;
      to FDR_61210R_LV_SP_5305267;
      length 22.3 m;
      configuration conf_OHLine_600;
      };



object meter {
      name FDR_61210R_LV_SP_5305267;
      phases CN;
      nominal_voltage  240;
      };


object load {
      name LOAD_8601768;
      parent FDR_61210R_LV_SP_5305267;
      phases CN;
      nominal_voltage  240;
      base_power_C Load_61210.result;
      power_fraction_C 1;
      current_fraction_C 0;
      impedance_fraction_C 0;
      power_pf_C L_pf_Head80784.output;
      current_pf_C 1;
      impedance_pf_C 1;
      
      // Customer Trial Appended Data //
      ausgrid_sa1 11103123343;
      ausgrid_annual_consumption 5432.3636364;
      ausgrid_annual_consumption_with_control_load 5432.3636364;
      ausgrid_simple_cell 26;
      ausgrid_elec_band_residential 2;
      ausgrid_elec_band_business 0;
      ausgrid_unit 0;
      ausgrid_income_band 1;
      ausgrid_gas_band 1;
      ausgrid_climate_zone 5;
      ausgrid_controlled_load 0;
      ausgrid_generation 0;
      };


object overhead_line {
      name FDR_61210R_LV_NODE_026_1-FDR_61210R_LV_SP_5305268;
      phases AN;
      from FDR_61210R_LV_NODE_026_1;
      to FDR_61210R_LV_SP_5305268;
      length 22.6 m;
      configuration conf_OHLine_600;
      };



object meter {
      name FDR_61210R_LV_SP_5305268;
      phases AN;
      nominal_voltage  240;
      };


object load {
      name LOAD_8601760;
      parent FDR_61210R_LV_SP_5305268;
      phases AN;
      nominal_voltage  240;
      base_power_A Load_61210.result;
      power_fraction_A 1;
      current_fraction_A 0;
      impedance_fraction_A 0;
      power_pf_A L_pf_Head80784.output;
      current_pf_A 1;
      impedance_pf_A 1;
      
      // Customer Trial Appended Data //
      ausgrid_sa1 11103123343;
      ausgrid_annual_consumption 7147.8144458;
      ausgrid_annual_consumption_with_control_load 7147.8144458;
      ausgrid_simple_cell 26;
      ausgrid_elec_band_residential 2;
      ausgrid_elec_band_business 0;
      ausgrid_unit 0;
      ausgrid_income_band 1;
      ausgrid_gas_band 1;
      ausgrid_climate_zone 5;
      ausgrid_controlled_load 0;
      ausgrid_generation 0;
      };


object overhead_line {
      name FDR_61210R_LV_NODE_026_1-FDR_61210R_LV_SP_5305269;
      phases AN;
      from FDR_61210R_LV_NODE_026_1;
      to FDR_61210R_LV_SP_5305269;
      length 14.1 m;
      configuration conf_OHLine_600;
      };



object meter {
      name FDR_61210R_LV_SP_5305269;
      phases AN;
      nominal_voltage  240;
      };


object load {
      name LOAD_8601758;
      parent FDR_61210R_LV_SP_5305269;
      phases AN;
      nominal_voltage  240;
      base_power_A Load_61210.result;
      power_fraction_A 1;
      current_fraction_A 0;
      impedance_fraction_A 0;
      power_pf_A L_pf_Head80784.output;
      current_pf_A 1;
      impedance_pf_A 1;
      
      // Customer Trial Appended Data //
      ausgrid_sa1 11103123343;
      ausgrid_annual_consumption 6367.7272727;
      ausgrid_annual_consumption_with_control_load 6367.7272727;
      ausgrid_simple_cell 26;
      ausgrid_elec_band_residential 2;
      ausgrid_elec_band_business 0;
      ausgrid_unit 0;
      ausgrid_income_band 1;
      ausgrid_gas_band 1;
      ausgrid_climate_zone 5;
      ausgrid_controlled_load 0;
      ausgrid_generation 0;
      };


object overhead_line {
      name FDR_61210R_LV_NODE_026_1-FDR_61210R_LV_NODE_027_4;
      phases ABCN;
      from FDR_61210R_LV_NODE_026_1;
      to FDR_61210R_LV_NODE_027_4;
      length 14.7 m;
      configuration conf_OHLine_600;
      };



object meter {
      name FDR_61210R_LV_NODE_027_4;
      phases ABCN;
      nominal_voltage  240;
      };


object overhead_line {
      name FDR_61210R_LV_NODE_027_4-FDR_61210R_LV_SP_5305213;
      phases AN;
      from FDR_61210R_LV_NODE_027_4;
      to FDR_61210R_LV_SP_5305213;
      length 26.7 m;
      configuration conf_OHLine_600;
      };



object meter {
      name FDR_61210R_LV_SP_5305213;
      phases AN;
      nominal_voltage  240;
      };


object load {
      name LOAD_8601734;
      parent FDR_61210R_LV_SP_5305213;
      phases AN;
      nominal_voltage  240;
      base_power_A Load_61210.result;
      power_fraction_A 1;
      current_fraction_A 0;
      impedance_fraction_A 0;
      power_pf_A L_pf_Head80784.output;
      current_pf_A 1;
      impedance_pf_A 1;
      
      // Customer Trial Appended Data //
      ausgrid_sa1 11103123334;
      ausgrid_annual_consumption 2296.3736264;
      ausgrid_annual_consumption_with_control_load 2296.3736264;
      ausgrid_simple_cell 25;
      ausgrid_elec_band_residential 1;
      ausgrid_elec_band_business 0;
      ausgrid_unit 0;
      ausgrid_income_band 1;
      ausgrid_gas_band 1;
      ausgrid_climate_zone 5;
      ausgrid_controlled_load 0;
      ausgrid_generation 0;
      };


object overhead_line {
      name FDR_61210R_LV_NODE_027_4-FDR_61210R_LV_SP_5305211;
      phases BN;
      from FDR_61210R_LV_NODE_027_4;
      to FDR_61210R_LV_SP_5305211;
      length 15.4 m;
      configuration conf_OHLine_600;
      };



object meter {
      name FDR_61210R_LV_SP_5305211;
      phases BN;
      nominal_voltage  240;
      };


object load {
      name LOAD_8601728;
      parent FDR_61210R_LV_SP_5305211;
      phases BN;
      nominal_voltage  240;
      base_power_B Load_61210.result;
      power_fraction_B 1;
      current_fraction_B 0;
      impedance_fraction_B 0;
      power_pf_B L_pf_Head80784.output;
      current_pf_B 1;
      impedance_pf_B 1;
      
      // Customer Trial Appended Data //
      ausgrid_sa1 11103123334;
      ausgrid_annual_consumption 5906.1969697;
      ausgrid_annual_consumption_with_control_load 5906.1969697;
      ausgrid_simple_cell 26;
      ausgrid_elec_band_residential 2;
      ausgrid_elec_band_business 0;
      ausgrid_unit 0;
      ausgrid_income_band 1;
      ausgrid_gas_band 1;
      ausgrid_climate_zone 5;
      ausgrid_controlled_load 0;
      ausgrid_generation 0;
      };


object overhead_line {
      name FDR_61210R_LV_NODE_026_1-FDR_61210R_LV_SP_5305270;
      phases AN;
      from FDR_61210R_LV_NODE_026_1;
      to FDR_61210R_LV_SP_5305270;
      length 14.3 m;
      configuration conf_OHLine_600;
      };



object meter {
      name FDR_61210R_LV_SP_5305270;
      phases AN;
      nominal_voltage  240;
      };


object load {
      name LOAD_8601756;
      parent FDR_61210R_LV_SP_5305270;
      phases AN;
      nominal_voltage  240;
      base_power_A Load_61210.result;
      power_fraction_A 1;
      current_fraction_A 0;
      impedance_fraction_A 0;
      power_pf_A L_pf_Head80784.output;
      current_pf_A 1;
      impedance_pf_A 1;
      
      // Customer Trial Appended Data //
      ausgrid_sa1 11103123343;
      ausgrid_annual_consumption 2253.3894505;
      ausgrid_annual_consumption_with_control_load 4547.4048352;
      ausgrid_simple_cell 25;
      ausgrid_elec_band_residential 1;
      ausgrid_elec_band_business 0;
      ausgrid_unit 0;
      ausgrid_income_band 1;
      ausgrid_gas_band 1;
      ausgrid_climate_zone 5;
      ausgrid_controlled_load 1;
      ausgrid_generation 1;
      };


object inverter {
      name DG_8601756;
      parent FDR_61210R_LV_SP_5305270;
      phases AN;
      generator_mode CONSTANT_PF;
      generator_status ONLINE;
      inverter_type PWM;
      power_factor 0.9;
      rated_power 10000;
      inverter_efficiency 0.95;
      };


object solar {
      name SOLAR_8601756;
      parent DG_8601756;
      phases AN;
      generator_status ONLINE;
      weather ElermoreClimate;
      panel_type SINGLE_CRYSTAL_SILICON;
      generator_mode CONSTANT_PF;
      area 12.2 m^2;
      tilt_angle 22;
      efficiency 0.14;
      orientation_azimuth 350;
      orientation  FIXED_AXIS;
      SOLAR_TILT_MODEL  SOLPOS;
      SOLAR_POWER_MODEL  DEFAULT;
      };


object overhead_line {
      name FDR_61210R_LV_NODE_026_1-FDR_61210R_LV_SP_5305212;
      phases CN;
      from FDR_61210R_LV_NODE_026_1;
      to FDR_61210R_LV_SP_5305212;
      length 28.0 m;
      configuration conf_OHLine_600;
      };



object meter {
      name FDR_61210R_LV_SP_5305212;
      phases CN;
      nominal_voltage  240;
      };


object load {
      name LOAD_8601732;
      parent FDR_61210R_LV_SP_5305212;
      phases CN;
      nominal_voltage  240;
      base_power_C Load_61210.result;
      power_fraction_C 1;
      current_fraction_C 0;
      impedance_fraction_C 0;
      power_pf_C L_pf_Head80784.output;
      current_pf_C 1;
      impedance_pf_C 1;
      
      // Customer Trial Appended Data //
      ausgrid_sa1 11103123334;
      ausgrid_annual_consumption 4244.49;
      ausgrid_annual_consumption_with_control_load 4244.49;
      ausgrid_simple_cell 25;
      ausgrid_elec_band_residential 1;
      ausgrid_elec_band_business 0;
      ausgrid_unit 0;
      ausgrid_income_band 1;
      ausgrid_gas_band 1;
      ausgrid_climate_zone 5;
      ausgrid_controlled_load 0;
      ausgrid_generation 1;
      };


object inverter {
      name DG_8601732;
      parent FDR_61210R_LV_SP_5305212;
      phases CN;
      generator_mode CONSTANT_PF;
      generator_status ONLINE;
      inverter_type PWM;
      power_factor 0.9;
      rated_power 10000;
      inverter_efficiency 0.95;
      };


object solar {
      name SOLAR_8601732;
      parent DG_8601732;
      phases CN;
      generator_status ONLINE;
      weather ElermoreClimate;
      panel_type SINGLE_CRYSTAL_SILICON;
      generator_mode CONSTANT_PF;
      area 12.383 m^2;
      tilt_angle 24;
      efficiency 0.14;
      orientation_azimuth 10;
      orientation  FIXED_AXIS;
      SOLAR_TILT_MODEL  SOLPOS;
      SOLAR_POWER_MODEL  DEFAULT;
      };


object overhead_line {
      name FDR_61210R_LV_NODE_025-FDR_61210R_LV_NODE_026_3;
      phases ABCN;
      from FDR_61210R_LV_NODE_025;
      to FDR_61210R_LV_NODE_026_3;
      length 70.0 m;
      configuration conf_OHLine_600;
      };



object meter {
      name FDR_61210R_LV_NODE_026_3;
      phases ABCN;
      nominal_voltage  240;
      };


object overhead_line {
      name FDR_61210R_LV_NODE_026_3-FDR_61210R_LV_SP_5334290;
      phases AN;
      from FDR_61210R_LV_NODE_026_3;
      to FDR_61210R_LV_SP_5334290;
      length 12.7 m;
      configuration conf_OHLine_600;
      };



object meter {
      name FDR_61210R_LV_SP_5334290;
      phases AN;
      nominal_voltage  240;
      };


object load {
      name LOAD_8601752;
      parent FDR_61210R_LV_SP_5334290;
      phases AN;
      nominal_voltage  240;
      base_power_A Load_61210.result;
      power_fraction_A 1;
      current_fraction_A 0;
      impedance_fraction_A 0;
      power_pf_A L_pf_Head80784.output;
      current_pf_A 1;
      impedance_pf_A 1;
      
      // Customer Trial Appended Data //
      ausgrid_sa1 11103123332;
      ausgrid_annual_consumption 3425.7391304;
      ausgrid_annual_consumption_with_control_load 4737.0869565;
      ausgrid_simple_cell 25;
      ausgrid_elec_band_residential 1;
      ausgrid_elec_band_business 0;
      ausgrid_unit 0;
      ausgrid_income_band 1;
      ausgrid_gas_band 1;
      ausgrid_climate_zone 5;
      ausgrid_controlled_load 1;
      ausgrid_generation 0;
      };


object overhead_line {
      name FDR_61210R_LV_NODE_026_3-FDR_61210R_LV_NODE_027_1;
      phases ABCN;
      from FDR_61210R_LV_NODE_026_3;
      to FDR_61210R_LV_NODE_027_1;
      length 12.7 m;
      configuration conf_OHLine_600;
      };



object meter {
      name FDR_61210R_LV_NODE_027_1;
      phases ABCN;
      nominal_voltage  240;
      };


object overhead_line {
      name FDR_61210R_LV_NODE_027_1-FDR_61210R_LV_NODE_028;
      phases ABCN;
      from FDR_61210R_LV_NODE_027_1;
      to FDR_61210R_LV_NODE_028;
      length 15.3 m;
      configuration conf_OHLine_600;
      };



object meter {
      name FDR_61210R_LV_NODE_028;
      phases ABCN;
      nominal_voltage  240;
      };


object overhead_line {
      name FDR_61210R_LV_NODE_028-FDR_61210R_LV_NODE_029_1;
      phases ABCN;
      from FDR_61210R_LV_NODE_028;
      to FDR_61210R_LV_NODE_029_1;
      length 6.0 m;
      configuration conf_OHLine_600;
      };



object meter {
      name FDR_61210R_LV_NODE_029_1;
      phases ABCN;
      nominal_voltage  240;
      };


object overhead_line {
      name FDR_61210R_LV_NODE_029_1-FDR_61210R_LV_NODE_030_1;
      phases ABCN;
      from FDR_61210R_LV_NODE_029_1;
      to FDR_61210R_LV_NODE_030_1;
      length 57.6 m;
      configuration conf_OHLine_51060;
      };



object meter {
      name FDR_61210R_LV_NODE_030_1;
      phases ABCN;
      nominal_voltage  240;
      };


object overhead_line {
      name FDR_61210R_LV_NODE_030_1-FDR_61210R_LV_NODE_031_1;
      phases ABCN;
      from FDR_61210R_LV_NODE_030_1;
      to FDR_61210R_LV_NODE_031_1;
      length 8.6 m;
      configuration conf_OHLine_51060;
      };



object meter {
      name FDR_61210R_LV_NODE_031_1;
      phases ABCN;
      nominal_voltage  240;
      };


object overhead_line {
      name FDR_61210R_LV_NODE_031_1-FDR_61210R_LV_NODE_032;
      phases ABCN;
      from FDR_61210R_LV_NODE_031_1;
      to FDR_61210R_LV_NODE_032;
      length 22.0 m;
      configuration conf_OHLine_51060;
      };



object meter {
      name FDR_61210R_LV_NODE_032;
      phases ABCN;
      nominal_voltage  240;
      };


object overhead_line {
      name FDR_61210R_LV_NODE_032-FDR_61210R_LV_SP_5213503;
      phases AN;
      from FDR_61210R_LV_NODE_032;
      to FDR_61210R_LV_SP_5213503;
      length 31.4 m;
      configuration conf_OHLine_600;
      };



object meter {
      name FDR_61210R_LV_SP_5213503;
      phases AN;
      nominal_voltage  240;
      };


object load {
      name LOAD_8601662;
      parent FDR_61210R_LV_SP_5213503;
      phases AN;
      nominal_voltage  240;
      base_power_A Load_61210.result;
      power_fraction_A 1;
      current_fraction_A 0;
      impedance_fraction_A 0;
      power_pf_A L_pf_Head80784.output;
      current_pf_A 1;
      impedance_pf_A 1;
      
      // Customer Trial Appended Data //
      ausgrid_sa1 11103123332;
      ausgrid_annual_consumption 5768.4242424;
      ausgrid_annual_consumption_with_control_load 5768.4242424;
      ausgrid_simple_cell 26;
      ausgrid_elec_band_residential 2;
      ausgrid_elec_band_business 0;
      ausgrid_unit 0;
      ausgrid_income_band 1;
      ausgrid_gas_band 1;
      ausgrid_climate_zone 5;
      ausgrid_controlled_load 0;
      ausgrid_generation 0;
      };


object overhead_line {
      name FDR_61210R_LV_NODE_032-FDR_61210R_LV_NODE_033_1;
      phases ABCN;
      from FDR_61210R_LV_NODE_032;
      to FDR_61210R_LV_NODE_033_1;
      length 44.4 m;
      configuration conf_OHLine_51060;
      };



object meter {
      name FDR_61210R_LV_NODE_033_1;
      phases ABCN;
      nominal_voltage  240;
      };


object overhead_line {
      name FDR_61210R_LV_NODE_033_1-FDR_61210R_LV_SP_5334253;
      phases BN;
      from FDR_61210R_LV_NODE_033_1;
      to FDR_61210R_LV_SP_5334253;
      length 31.0 m;
      configuration conf_OHLine_2312;
      };



object meter {
      name FDR_61210R_LV_SP_5334253;
      phases BN;
      nominal_voltage  240;
      };


object load {
      name LOAD_8601774;
      parent FDR_61210R_LV_SP_5334253;
      phases BN;
      nominal_voltage  240;
      base_power_B Load_61210.result;
      power_fraction_B 1;
      current_fraction_B 0;
      impedance_fraction_B 0;
      power_pf_B L_pf_Head80784.output;
      current_pf_B 1;
      impedance_pf_B 1;
      
      // Customer Trial Appended Data //
      ausgrid_sa1 11103123332;
      ausgrid_annual_consumption 5367.0588235;
      ausgrid_annual_consumption_with_control_load 7466.6470588;
      ausgrid_simple_cell 25;
      ausgrid_elec_band_residential 1;
      ausgrid_elec_band_business 0;
      ausgrid_unit 0;
      ausgrid_income_band 1;
      ausgrid_gas_band 1;
      ausgrid_climate_zone 5;
      ausgrid_controlled_load 1;
      ausgrid_generation 0;
      };


object overhead_line {
      name FDR_61210R_LV_NODE_033_1-FDR_61210R_LV_SP_5213505;
      phases AN;
      from FDR_61210R_LV_NODE_033_1;
      to FDR_61210R_LV_SP_5213505;
      length 28.8 m;
      configuration conf_OHLine_57018;
      };



object meter {
      name FDR_61210R_LV_SP_5213505;
      phases AN;
      nominal_voltage  240;
      };


object load {
      name LOAD_8601676;
      parent FDR_61210R_LV_SP_5213505;
      phases AN;
      nominal_voltage  240;
      base_power_A Load_61210.result;
      power_fraction_A 1;
      current_fraction_A 0;
      impedance_fraction_A 0;
      power_pf_A L_pf_Head80784.output;
      current_pf_A 1;
      impedance_pf_A 1;
      
      // Customer Trial Appended Data //
      ausgrid_sa1 11103123332;
      ausgrid_annual_consumption 1558.5842424;
      ausgrid_annual_consumption_with_control_load 1558.5842424;
      ausgrid_simple_cell 25;
      ausgrid_elec_band_residential 1;
      ausgrid_elec_band_business 0;
      ausgrid_unit 0;
      ausgrid_income_band 1;
      ausgrid_gas_band 1;
      ausgrid_climate_zone 5;
      ausgrid_controlled_load 0;
      ausgrid_generation 0;
      };


object overhead_line {
      name FDR_61210R_LV_NODE_033_1-FDR_61210R_LV_SP_5213504;
      phases BN;
      from FDR_61210R_LV_NODE_033_1;
      to FDR_61210R_LV_SP_5213504;
      length 33.4 m;
      configuration conf_OHLine_57018;
      };



object meter {
      name FDR_61210R_LV_SP_5213504;
      phases BN;
      nominal_voltage  240;
      };


object load {
      name LOAD_8601670;
      parent FDR_61210R_LV_SP_5213504;
      phases BN;
      nominal_voltage  240;
      base_power_B Load_61210.result;
      power_fraction_B 1;
      current_fraction_B 0;
      impedance_fraction_B 0;
      power_pf_B L_pf_Head80784.output;
      current_pf_B 1;
      impedance_pf_B 1;
      
      // Customer Trial Appended Data //
      ausgrid_sa1 11103123332;
      ausgrid_annual_consumption 2574.3939394;
      ausgrid_annual_consumption_with_control_load 3360.8484848;
      ausgrid_simple_cell 25;
      ausgrid_elec_band_residential 1;
      ausgrid_elec_band_business 0;
      ausgrid_unit 0;
      ausgrid_income_band 1;
      ausgrid_gas_band 1;
      ausgrid_climate_zone 5;
      ausgrid_controlled_load 1;
      ausgrid_generation 0;
      };


object overhead_line {
      name FDR_61210R_LV_NODE_033_1-FDR_61210R_LV_SP_5213490;
      phases AN;
      from FDR_61210R_LV_NODE_033_1;
      to FDR_61210R_LV_SP_5213490;
      length 13.0 m;
      configuration conf_OHLine_57018;
      };



object meter {
      name FDR_61210R_LV_SP_5213490;
      phases AN;
      nominal_voltage  240;
      };


object load {
      name LOAD_8601672;
      parent FDR_61210R_LV_SP_5213490;
      phases AN;
      nominal_voltage  240;
      base_power_A Load_61210.result;
      power_fraction_A 1;
      current_fraction_A 0;
      impedance_fraction_A 0;
      power_pf_A L_pf_Head80784.output;
      current_pf_A 1;
      impedance_pf_A 1;
      
      // Customer Trial Appended Data //
      ausgrid_sa1 11103123332;
      ausgrid_annual_consumption 1175.6363636;
      ausgrid_annual_consumption_with_control_load 1175.6363636;
      ausgrid_simple_cell 25;
      ausgrid_elec_band_residential 1;
      ausgrid_elec_band_business 0;
      ausgrid_unit 0;
      ausgrid_income_band 1;
      ausgrid_gas_band 1;
      ausgrid_climate_zone 5;
      ausgrid_controlled_load 0;
      ausgrid_generation 0;
      };


object overhead_line {
      name FDR_61210R_LV_NODE_032-FDR_61210R_LV_SP_5335485;
      phases AN;
      from FDR_61210R_LV_NODE_032;
      to FDR_61210R_LV_SP_5335485;
      length 14.4 m;
      configuration conf_OHLine_57018;
      };



object meter {
      name FDR_61210R_LV_SP_5335485;
      phases AN;
      nominal_voltage  240;
      };


object load {
      name LOAD_8601650;
      parent FDR_61210R_LV_SP_5335485;
      phases AN;
      nominal_voltage  240;
      base_power_A Load_61210.result;
      power_fraction_A 1;
      current_fraction_A 0;
      impedance_fraction_A 0;
      power_pf_A L_pf_Head80784.output;
      current_pf_A 1;
      impedance_pf_A 1;
      
      // Customer Trial Appended Data //
      ausgrid_sa1 11103123332;
      ausgrid_annual_consumption 7570.6954545;
      ausgrid_annual_consumption_with_control_load 7570.6954545;
      ausgrid_simple_cell 26;
      ausgrid_elec_band_residential 2;
      ausgrid_elec_band_business 0;
      ausgrid_unit 0;
      ausgrid_income_band 1;
      ausgrid_gas_band 1;
      ausgrid_climate_zone 5;
      ausgrid_controlled_load 0;
      ausgrid_generation 0;
      };


object overhead_line {
      name FDR_61210R_LV_NODE_032-FDR_61210R_LV_SP_5213491;
      phases CN;
      from FDR_61210R_LV_NODE_032;
      to FDR_61210R_LV_SP_5213491;
      length 24.0 m;
      configuration conf_OHLine_600;
      };



object meter {
      name FDR_61210R_LV_SP_5213491;
      phases CN;
      nominal_voltage  240;
      };


object load {
      name LOAD_8601666;
      parent FDR_61210R_LV_SP_5213491;
      phases CN;
      nominal_voltage  240;
      base_power_C Load_61210.result;
      power_fraction_C 1;
      current_fraction_C 0;
      impedance_fraction_C 0;
      power_pf_C L_pf_Head80784.output;
      current_pf_C 1;
      impedance_pf_C 1;
      
      // Customer Trial Appended Data //
      ausgrid_sa1 11103123332;
      ausgrid_annual_consumption 875.10659341;
      ausgrid_annual_consumption_with_control_load 1946.867033;
      ausgrid_simple_cell 25;
      ausgrid_elec_band_residential 1;
      ausgrid_elec_band_business 0;
      ausgrid_unit 0;
      ausgrid_income_band 1;
      ausgrid_gas_band 1;
      ausgrid_climate_zone 5;
      ausgrid_controlled_load 1;
      ausgrid_generation 0;
      };


object overhead_line {
      name FDR_61210R_LV_NODE_032-FDR_61210R_LV_SP_5335541;
      phases CN;
      from FDR_61210R_LV_NODE_032;
      to FDR_61210R_LV_SP_5335541;
      length 27.5 m;
      configuration conf_OHLine_600;
      };



object meter {
      name FDR_61210R_LV_SP_5335541;
      phases CN;
      nominal_voltage  240;
      };


object load {
      name LOAD_8601654;
      parent FDR_61210R_LV_SP_5335541;
      phases CN;
      nominal_voltage  240;
      base_power_C Load_61210.result;
      power_fraction_C 1;
      current_fraction_C 0;
      impedance_fraction_C 0;
      power_pf_C L_pf_Head80784.output;
      current_pf_C 1;
      impedance_pf_C 1;
      
      // Customer Trial Appended Data //
      ausgrid_sa1 11103123332;
      ausgrid_annual_consumption 4071.2;
      ausgrid_annual_consumption_with_control_load 4071.2;
      ausgrid_simple_cell 25;
      ausgrid_elec_band_residential 1;
      ausgrid_elec_band_business 0;
      ausgrid_unit 0;
      ausgrid_income_band 1;
      ausgrid_gas_band 1;
      ausgrid_climate_zone 5;
      ausgrid_controlled_load 0;
      ausgrid_generation 0;
      };


object overhead_line {
      name FDR_61210R_LV_NODE_032-FDR_61210R_LV_SP_5335484;
      phases BN;
      from FDR_61210R_LV_NODE_032;
      to FDR_61210R_LV_SP_5335484;
      length 13.7 m;
      configuration conf_OHLine_57018;
      };



object meter {
      name FDR_61210R_LV_SP_5335484;
      phases BN;
      nominal_voltage  240;
      };


object load {
      name LOAD_8601658;
      parent FDR_61210R_LV_SP_5335484;
      phases BN;
      nominal_voltage  240;
      base_power_B Load_61210.result;
      power_fraction_B 1;
      current_fraction_B 0;
      impedance_fraction_B 0;
      power_pf_B L_pf_Head80784.output;
      current_pf_B 1;
      impedance_pf_B 1;
      
      // Customer Trial Appended Data //
      ausgrid_sa1 11103123332;
      ausgrid_annual_consumption 3412.0606061;
      ausgrid_annual_consumption_with_control_load 5168.969697;
      ausgrid_simple_cell 25;
      ausgrid_elec_band_residential 1;
      ausgrid_elec_band_business 0;
      ausgrid_unit 0;
      ausgrid_income_band 1;
      ausgrid_gas_band 1;
      ausgrid_climate_zone 5;
      ausgrid_controlled_load 1;
      ausgrid_generation 0;
      };


object overhead_line {
      name FDR_61210R_LV_NODE_031_1-FDR_61210R_LV_SP_5335486;
      phases BN;
      from FDR_61210R_LV_NODE_031_1;
      to FDR_61210R_LV_SP_5335486;
      length 12.7 m;
      configuration conf_OHLine_57018;
      };



object meter {
      name FDR_61210R_LV_SP_5335486;
      phases BN;
      nominal_voltage  240;
      };


object load {
      name LOAD_8601644;
      parent FDR_61210R_LV_SP_5335486;
      phases BN;
      nominal_voltage  240;
      base_power_B Load_61210.result;
      power_fraction_B 1;
      current_fraction_B 0;
      impedance_fraction_B 0;
      power_pf_B L_pf_Head80784.output;
      current_pf_B 1;
      impedance_pf_B 1;
      
      // Customer Trial Appended Data //
      ausgrid_sa1 11103123332;
      ausgrid_annual_consumption 5619.4853229;
      ausgrid_annual_consumption_with_control_load 8825.0567515;
      ausgrid_simple_cell 49;
      ausgrid_elec_band_residential 0;
      ausgrid_elec_band_business 1;
      ausgrid_unit 0;
      ausgrid_income_band 1;
      ausgrid_gas_band 1;
      ausgrid_climate_zone 5;
      ausgrid_controlled_load 1;
      ausgrid_generation 0;
      };


object overhead_line {
      name FDR_61210R_LV_NODE_030_1-FDR_61210R_LV_SP_5213502;
      phases BN;
      from FDR_61210R_LV_NODE_030_1;
      to FDR_61210R_LV_SP_5213502;
      length 29.3 m;
      configuration conf_OHLine_600;
      };



object meter {
      name FDR_61210R_LV_SP_5213502;
      phases BN;
      nominal_voltage  240;
      };


object load {
      name LOAD_8601646;
      parent FDR_61210R_LV_SP_5213502;
      phases BN;
      nominal_voltage  240;
      base_power_B Load_61210.result;
      power_fraction_B 1;
      current_fraction_B 0;
      impedance_fraction_B 0;
      power_pf_B L_pf_Head80784.output;
      current_pf_B 1;
      impedance_pf_B 1;
      
      // Customer Trial Appended Data //
      ausgrid_sa1 11103123332;
      ausgrid_annual_consumption 188.72727273;
      ausgrid_annual_consumption_with_control_load 894.48484848;
      ausgrid_simple_cell 25;
      ausgrid_elec_band_residential 1;
      ausgrid_elec_band_business 0;
      ausgrid_unit 0;
      ausgrid_income_band 1;
      ausgrid_gas_band 1;
      ausgrid_climate_zone 5;
      ausgrid_controlled_load 1;
      ausgrid_generation 0;
      };


object overhead_line {
      name FDR_61210R_LV_NODE_029_1-FDR_61210R_LV_SW_030_T1;
      phases ABCN;
      from FDR_61210R_LV_NODE_029_1;
      to FDR_61210R_LV_SW_030_T1;
      length 40.7 m;
      configuration conf_OHLine_51060;
      };



object meter {
      name FDR_61210R_LV_SW_030_T1;
      phases ABCN;
      nominal_voltage  240;
      };


object overhead_line {
      name FDR_61210R_LV_NODE_029_1-FDR_61210R_LV_NODE_030_2;
      phases ABCN;
      from FDR_61210R_LV_NODE_029_1;
      to FDR_61210R_LV_NODE_030_2;
      length 39.0 m;
      configuration conf_OHLine_51060;
      };



object meter {
      name FDR_61210R_LV_NODE_030_2;
      phases ABCN;
      nominal_voltage  240;
      };


object overhead_line {
      name FDR_61210R_LV_NODE_030_2-FDR_61210R_LV_SP_5305273;
      phases BN;
      from FDR_61210R_LV_NODE_030_2;
      to FDR_61210R_LV_SP_5305273;
      length 18.1 m;
      configuration conf_OHLine_600;
      };



object meter {
      name FDR_61210R_LV_SP_5305273;
      phases BN;
      nominal_voltage  240;
      };


object load {
      name LOAD_8601726;
      parent FDR_61210R_LV_SP_5305273;
      phases BN;
      nominal_voltage  240;
      base_power_B Load_61210.result;
      power_fraction_B 1;
      current_fraction_B 0;
      impedance_fraction_B 0;
      power_pf_B L_pf_Head80784.output;
      current_pf_B 1;
      impedance_pf_B 1;
      
      // Customer Trial Appended Data //
      ausgrid_sa1 11103123332;
      ausgrid_annual_consumption 2242.5454545;
      ausgrid_annual_consumption_with_control_load 3387.6363636;
      ausgrid_simple_cell 25;
      ausgrid_elec_band_residential 1;
      ausgrid_elec_band_business 0;
      ausgrid_unit 0;
      ausgrid_income_band 1;
      ausgrid_gas_band 1;
      ausgrid_climate_zone 5;
      ausgrid_controlled_load 1;
      ausgrid_generation 0;
      };


object overhead_line {
      name FDR_61210R_LV_NODE_030_2-FDR_61210R_LV_SP_5305205;
      phases AN;
      from FDR_61210R_LV_NODE_030_2;
      to FDR_61210R_LV_SP_5305205;
      length 27.4 m;
      configuration conf_OHLine_600;
      };



object meter {
      name FDR_61210R_LV_SP_5305205;
      phases AN;
      nominal_voltage  240;
      };


object load {
      name LOAD_8601682;
      parent FDR_61210R_LV_SP_5305205;
      phases AN;
      nominal_voltage  240;
      base_power_A Load_61210.result;
      power_fraction_A 1;
      current_fraction_A 0;
      impedance_fraction_A 0;
      power_pf_A L_pf_Head80784.output;
      current_pf_A 1;
      impedance_pf_A 1;
      
      // Customer Trial Appended Data //
      ausgrid_sa1 11103123332;
      ausgrid_annual_consumption 2756.9606061;
      ausgrid_annual_consumption_with_control_load 2756.9606061;
      ausgrid_simple_cell 25;
      ausgrid_elec_band_residential 1;
      ausgrid_elec_band_business 0;
      ausgrid_unit 0;
      ausgrid_income_band 1;
      ausgrid_gas_band 1;
      ausgrid_climate_zone 5;
      ausgrid_controlled_load 0;
      ausgrid_generation 0;
      };


object overhead_line {
      name FDR_61210R_LV_NODE_030_2-FDR_61210R_LV_SP_5334258;
      phases BN;
      from FDR_61210R_LV_NODE_030_2;
      to FDR_61210R_LV_SP_5334258;
      length 31.3 m;
      configuration conf_OHLine_600;
      };



object meter {
      name FDR_61210R_LV_SP_5334258;
      phases BN;
      nominal_voltage  240;
      };


object load {
      name LOAD_8601684;
      parent FDR_61210R_LV_SP_5334258;
      phases BN;
      nominal_voltage  240;
      base_power_B Load_61210.result;
      power_fraction_B 1;
      current_fraction_B 0;
      impedance_fraction_B 0;
      power_pf_B L_pf_Head80784.output;
      current_pf_B 1;
      impedance_pf_B 1;
      
      // Customer Trial Appended Data //
      ausgrid_sa1 11103123332;
      ausgrid_annual_consumption 4286.1000415;
      ausgrid_annual_consumption_with_control_load 6483.3727688;
      ausgrid_simple_cell 25;
      ausgrid_elec_band_residential 1;
      ausgrid_elec_band_business 0;
      ausgrid_unit 0;
      ausgrid_income_band 1;
      ausgrid_gas_band 1;
      ausgrid_climate_zone 5;
      ausgrid_controlled_load 1;
      ausgrid_generation 0;
      };


object load {
      name LOAD_8601788;
      parent FDR_61210R_LV_SP_5334258;
      phases BN;
      nominal_voltage  240;
      base_power_B Load_61210.result;
      power_fraction_B 1;
      current_fraction_B 0;
      impedance_fraction_B 0;
      power_pf_B L_pf_Head80784.output;
      current_pf_B 1;
      impedance_pf_B 1;
      
      // Customer Trial Appended Data //
      ausgrid_sa1 11103123332;
      ausgrid_annual_consumption 2431.7487879;
      ausgrid_annual_consumption_with_control_load 2431.7487879;
      ausgrid_simple_cell 37;
      ausgrid_elec_band_residential 1;
      ausgrid_elec_band_business 0;
      ausgrid_unit 1;
      ausgrid_income_band 1;
      ausgrid_gas_band 1;
      ausgrid_climate_zone 5;
      ausgrid_controlled_load 0;
      ausgrid_generation 0;
      };


object overhead_line {
      name FDR_61210R_LV_NODE_030_2-FDR_61210R_LV_SP_5305272;
      phases BN;
      from FDR_61210R_LV_NODE_030_2;
      to FDR_61210R_LV_SP_5305272;
      length 12.7 m;
      configuration conf_OHLine_600;
      };



object meter {
      name FDR_61210R_LV_SP_5305272;
      phases BN;
      nominal_voltage  240;
      };


object load {
      name LOAD_8601730;
      parent FDR_61210R_LV_SP_5305272;
      phases BN;
      nominal_voltage  240;
      base_power_B Load_61210.result;
      power_fraction_B 1;
      current_fraction_B 0;
      impedance_fraction_B 0;
      power_pf_B L_pf_Head80784.output;
      current_pf_B 1;
      impedance_pf_B 1;
      
      // Customer Trial Appended Data //
      ausgrid_sa1 11103123332;
      ausgrid_annual_consumption 4670.2424242;
      ausgrid_annual_consumption_with_control_load 6940.5757576;
      ausgrid_simple_cell 25;
      ausgrid_elec_band_residential 1;
      ausgrid_elec_band_business 0;
      ausgrid_unit 0;
      ausgrid_income_band 1;
      ausgrid_gas_band 1;
      ausgrid_climate_zone 5;
      ausgrid_controlled_load 1;
      ausgrid_generation 0;
      };


object overhead_line {
      name FDR_61210R_LV_NODE_030_2-FDR_61210R_LV_NODE_031;
      phases ABCN;
      from FDR_61210R_LV_NODE_030_2;
      to FDR_61210R_LV_NODE_031;
      length 25.7 m;
      configuration conf_OHLine_51060;
      };



object meter {
      name FDR_61210R_LV_NODE_031;
      phases ABCN;
      nominal_voltage  240;
      };


object switch {
      name FDR_61210R_LV_NODE_031-FDR_61210R_LV_SW_032_T1;
      phases ABCN;
      from FDR_61210R_LV_NODE_031;
      to FDR_61210R_LV_SW_032_T1;
      status CLOSED;
      };



object meter {
      name FDR_61210R_LV_SW_032_T1;
      phases ABCN;
      nominal_voltage  240;
      };


object switch {
      name FDR_61210R_LV_SW_032;
      phases ABCN;
      from FDR_61210R_LV_SW_032_T1;
      to FDR_61210R_LV_SW_032_T2;
      status CLOSED;
      };



object meter {
      name FDR_61210R_LV_SW_032_T2;
      phases ABCN;
      nominal_voltage  240;
      };


object overhead_line {
      name FDR_61210R_LV_NODE_031-FDR_61210R_LV_SP_5305276;
      phases BN;
      from FDR_61210R_LV_NODE_031;
      to FDR_61210R_LV_SP_5305276;
      length 16.2 m;
      configuration conf_OHLine_600;
      };



object meter {
      name FDR_61210R_LV_SP_5305276;
      phases BN;
      nominal_voltage  240;
      };


object load {
      name LOAD_8601714;
      parent FDR_61210R_LV_SP_5305276;
      phases BN;
      nominal_voltage  240;
      base_power_B Load_61210.result;
      power_fraction_B 1;
      current_fraction_B 0;
      impedance_fraction_B 0;
      power_pf_B L_pf_Head80784.output;
      current_pf_B 1;
      impedance_pf_B 1;
      
      // Customer Trial Appended Data //
      ausgrid_sa1 11103123332;
      ausgrid_annual_consumption 4799.4333333;
      ausgrid_annual_consumption_with_control_load 4799.4333333;
      ausgrid_simple_cell 25;
      ausgrid_elec_band_residential 1;
      ausgrid_elec_band_business 0;
      ausgrid_unit 0;
      ausgrid_income_band 1;
      ausgrid_gas_band 1;
      ausgrid_climate_zone 5;
      ausgrid_controlled_load 0;
      ausgrid_generation 1;
      };


object inverter {
      name DG_8601714;
      parent FDR_61210R_LV_SP_5305276;
      phases BN;
      generator_mode CONSTANT_PF;
      generator_status ONLINE;
      inverter_type PWM;
      power_factor 0.9;
      rated_power 10000;
      inverter_efficiency 0.95;
      };


object solar {
      name SOLAR_8601714;
      parent DG_8601714;
      phases BN;
      generator_status ONLINE;
      weather ElermoreClimate;
      panel_type SINGLE_CRYSTAL_SILICON;
      generator_mode CONSTANT_PF;
      area 6.1 m^2;
      tilt_angle 15;
      efficiency 0.14;
      orientation_azimuth 30;
      orientation  FIXED_AXIS;
      SOLAR_TILT_MODEL  SOLPOS;
      SOLAR_POWER_MODEL  DEFAULT;
      };


object overhead_line {
      name FDR_61210R_LV_NODE_031-FDR_61210R_LV_NODE_032_1;
      phases ABCN;
      from FDR_61210R_LV_NODE_031;
      to FDR_61210R_LV_NODE_032_1;
      length 38.5 m;
      configuration conf_OHLine_51060;
      };



object meter {
      name FDR_61210R_LV_NODE_032_1;
      phases ABCN;
      nominal_voltage  240;
      };


object overhead_line {
      name FDR_61210R_LV_NODE_032_1-FDR_61210R_LV_SP_5334293;
      phases BN;
      from FDR_61210R_LV_NODE_032_1;
      to FDR_61210R_LV_SP_5334293;
      length 15.8 m;
      configuration conf_OHLine_600;
      };



object meter {
      name FDR_61210R_LV_SP_5334293;
      phases BN;
      nominal_voltage  240;
      };


object load {
      name LOAD_8601700;
      parent FDR_61210R_LV_SP_5334293;
      phases BN;
      nominal_voltage  240;
      base_power_B Load_61210.result;
      power_fraction_B 1;
      current_fraction_B 0;
      impedance_fraction_B 0;
      power_pf_B L_pf_Head80784.output;
      current_pf_B 1;
      impedance_pf_B 1;
      
      // Customer Trial Appended Data //
      ausgrid_sa1 11103123332;
      ausgrid_annual_consumption 2270.7272727;
      ausgrid_annual_consumption_with_control_load 4877.9090909;
      ausgrid_simple_cell 25;
      ausgrid_elec_band_residential 1;
      ausgrid_elec_band_business 0;
      ausgrid_unit 0;
      ausgrid_income_band 1;
      ausgrid_gas_band 1;
      ausgrid_climate_zone 5;
      ausgrid_controlled_load 1;
      ausgrid_generation 0;
      };


object switch {
      name FDR_61210R_LV_NODE_032_1-FDR_61210R_LV_NODE_033_3;
      phases ABCN;
      from FDR_61210R_LV_NODE_032_1;
      to FDR_61210R_LV_NODE_033_3;
      status CLOSED;
      };



object meter {
      name FDR_61210R_LV_NODE_033_3;
      phases ABCN;
      nominal_voltage  240;
      };


object underground_line {
      name FDR_61210R_LV_NODE_033_3-FDR_61210R_LV_NODE_034;
      phases ABCN;
      from FDR_61210R_LV_NODE_033_3;
      to FDR_61210R_LV_NODE_034;
      length 71.2 m;
      configuration conf_UGLine_80037;
      };



object meter {
      name FDR_61210R_LV_NODE_034;
      phases ABCN;
      nominal_voltage  240;
      };


object underground_line {
      name FDR_61210R_LV_NODE_034-FDR_61210R_LV_SP_5336142;
      phases CN;
      from FDR_61210R_LV_NODE_034;
      to FDR_61210R_LV_SP_5336142;
      length 14.0 m;
      configuration conf_UGLine_500;
      };



object meter {
      name FDR_61210R_LV_SP_5336142;
      phases CN;
      nominal_voltage  240;
      };


object load {
      name LOAD_8601656;
      parent FDR_61210R_LV_SP_5336142;
      phases CN;
      nominal_voltage  240;
      base_power_C Load_61210.result;
      power_fraction_C 1;
      current_fraction_C 0;
      impedance_fraction_C 0;
      power_pf_C L_pf_Head80784.output;
      current_pf_C 1;
      impedance_pf_C 1;
      
      // Customer Trial Appended Data //
      ausgrid_sa1 11103123332;
      ausgrid_annual_consumption 387;
      ausgrid_annual_consumption_with_control_load 387;
      ausgrid_simple_cell 25;
      ausgrid_elec_band_residential 1;
      ausgrid_elec_band_business 0;
      ausgrid_unit 0;
      ausgrid_income_band 1;
      ausgrid_gas_band 1;
      ausgrid_climate_zone 5;
      ausgrid_controlled_load 0;
      ausgrid_generation 0;
      };


object underground_line {
      name FDR_61210R_LV_NODE_034-FDR_61210R_LV_SP_5336141;
      phases BN;
      from FDR_61210R_LV_NODE_034;
      to FDR_61210R_LV_SP_5336141;
      length 11.2 m;
      configuration conf_UGLine_500;
      };



object meter {
      name FDR_61210R_LV_SP_5336141;
      phases BN;
      nominal_voltage  240;
      };


object load {
      name LOAD_8601664;
      parent FDR_61210R_LV_SP_5336141;
      phases BN;
      nominal_voltage  240;
      base_power_B Load_61210.result;
      power_fraction_B 1;
      current_fraction_B 0;
      impedance_fraction_B 0;
      power_pf_B L_pf_Head80784.output;
      current_pf_B 1;
      impedance_pf_B 1;
      
      // Customer Trial Appended Data //
      ausgrid_sa1 11103123332;
      ausgrid_annual_consumption 7808.3102435;
      ausgrid_annual_consumption_with_control_load 12782.81691;
      ausgrid_simple_cell 26;
      ausgrid_elec_band_residential 2;
      ausgrid_elec_band_business 0;
      ausgrid_unit 0;
      ausgrid_income_band 1;
...